@<TRIPOS>MOLECULE
UNK
   12    12     1     0     0
SMALL
bcc


@<TRIPOS>ATOM
      1 H           -0.2740    -1.6800     3.5300 hc         1 UNK       0.049367
      2 H1          -1.7700    -1.6860     4.5180 hc         1 UNK       0.049367
      3 H2          -1.8720    -1.4950     2.7380 hc         1 UNK       0.049367
      4 CB          -1.2820    -1.2570     3.6330 c3         1 UNK      -0.024800
      5 CG          -1.1860     0.2400     3.7880 cc         1 UNK      -0.214900
      6 ND1         -1.4990     0.8830     4.9750 na         1 UNK      -0.319900
      7 CD2         -0.8490     1.2320     2.9000 cd         1 UNK       0.294200
      8 CE1         -1.3500     2.2040     4.7700 cc         1 UNK       0.384400
      9 NE2         -0.9580     2.4710     3.5210 nd         1 UNK      -0.666000
     10 HD1         -1.7770     0.4530     5.8110 hn         1 UNK       0.298700
     11 HD2         -0.5380     1.0760     1.8780 h4         1 UNK       0.041100
     12 HE1         -1.5270     2.9570     5.5230 h5         1 UNK       0.059100
@<TRIPOS>BOND
     1     1     4 1   
     2     2     4 1   
     3     3     4 1   
     4     4     5 1   
     5     5     6 1   
     6     5     7 2   
     7     6     8 1   
     8     6    10 1   
     9     7     9 1   
    10     7    11 1   
    11     8     9 2   
    12     8    12 1   
@<TRIPOS>SUBSTRUCTURE
     1 UNK         1 TEMP              0 ****  ****    0 ROOT
