@<TRIPOS>MOLECULE
UNL
   34    35     1     0     0
SMALL
No Charge or Current Charge


@<TRIPOS>ATOM
      1 C           -1.0160     1.3150     0.0160 c1         1 UNL       0.000000
      2 C1           0.1420     2.1010     0.0760 c2         1 UNL       0.000000
      3 C2           1.3320     1.3670     0.0460 c2         1 UNL       0.000000
      4 C3           1.1370    -0.0200    -0.0030 c1         1 UNL       0.000000
      5 C4          -2.4490     1.7910     0.0390 c2         1 UNL       0.000000
      6 C5           2.1720    -1.0950     0.1100 c2         1 UNL       0.000000
      7 C6          -3.4990     0.8500    -0.0780 c2         1 UNL       0.000000
      8 C7          -4.8320     1.2650    -0.0590 c2         1 UNL       0.000000
      9 N           -5.1360     2.5790     0.0730 n2         1 UNL       0.000000
     10 C8          -4.1660     3.5190     0.1900 c2         1 UNL       0.000000
     11 C9          -2.8180     3.1500     0.1760 c2         1 UNL       0.000000
     12 C10          3.3960    -0.8810     0.7710 c2         1 UNL       0.000000
     13 C11          1.9180    -2.3810    -0.4070 c2         1 UNL       0.000000
     14 C12          2.8790    -3.3880    -0.2850 c2         1 UNL       0.000000
     15 N1           4.0550    -3.1360     0.3440 n2         1 UNL       0.000000
     16 C13          4.3280    -1.9160     0.8740 c2         1 UNL       0.000000
     17 H            3.6290     0.0630     1.2360 ha         1 UNL       0.000000
     18 H1           0.9920    -2.6130    -0.9150 ha         1 UNL       0.000000
     19 H2           2.6870    -4.3720    -0.6910 h4         1 UNL       0.000000
     20 H3           5.2660    -1.7520     1.3870 h4         1 UNL       0.000000
     21 H4          -2.1110     3.9500     0.2760 ha         1 UNL       0.000000
     22 H5          -4.4410     4.5600     0.2950 h4         1 UNL       0.000000
     23 H6          -3.3110    -0.2080    -0.1850 ha         1 UNL       0.000000
     24 H7          -5.6270     0.5370    -0.1500 h4         1 UNL       0.000000
     25 O            0.0810     3.4570     0.1450 os         1 UNL       0.000000
     26 O1           2.5370     1.9930     0.0450 os         1 UNL       0.000000
     27 C14          3.5780     1.7200    -0.8250 c3         1 UNL       0.000000
     28 H8           4.4990     1.4730    -0.2610 h1         1 UNL       0.000000
     29 H9           3.7890     2.6300    -1.4230 h1         1 UNL       0.000000
     30 H10          3.3280     0.8980    -1.5300 h1         1 UNL       0.000000
     31 C15          1.1260     4.3540     0.2010 c3         1 UNL       0.000000
     32 H11          1.7410     4.1750     1.1080 h1         1 UNL       0.000000
     33 H12          0.7130     5.3820     0.2590 h1         1 UNL       0.000000
     34 H13          1.7460     4.2820    -0.7180 h1         1 UNL       0.000000
@<TRIPOS>BOND
     1     1     2 1   
     2     1     5 1   
     3     2     3 1   
     4     2    25 1   
     5     3     4 1   
     6     3    26 1   
     7     4     6 1   
     8     5     7 1   
     9     5    11 1   
    10     6    12 1   
    11     6    13 1   
    12     7     8 1   
    13     7    23 1   
    14     8     9 1   
    15     8    24 1   
    16     9    10 1   
    17    10    11 1   
    18    10    22 1   
    19    11    21 1   
    20    12    16 1   
    21    12    17 1   
    22    13    14 1   
    23    13    18 1   
    24    14    15 1   
    25    14    19 1   
    26    15    16 1   
    27    16    20 1   
    28    25    31 1   
    29    26    27 1   
    30    27    28 1   
    31    27    29 1   
    32    27    30 1   
    33    31    32 1   
    34    31    33 1   
    35    31    34 1   
@<TRIPOS>SUBSTRUCTURE
     1 UNL         1 TEMP              0 ****  ****    0 ROOT
